23

 Cu  -0.76340642779813     -1.02405517335073     -0.02193513687359
  O   -1.00976839507170      0.78750664054718     -1.81382181275398
  H   -1.56162901515337      0.76800651598954     -2.60164333481467
  N   -2.32386388521900     -0.08996155552844      0.95795351424424
  H   -3.16060956596427     -0.65173388564472      1.08500923139546
  N   -2.09884273655719     -2.29852671183089     -0.94870062460663
  H   -2.16597793014165     -3.13530089086939     -0.37313979047614
  N   0.59568029943888      0.07645483333462      1.07761062918926
  H   0.25185512490480      0.96103973993761      1.43977161066447
  N   0.77382291034593     -1.78330780266182     -1.17430047079735
  H   0.63362194243690     -2.72631604889461     -1.52495746398191
  O   -0.51957653465232     -2.83386966497095      1.77170496370122
  H   -1.03183424668359     -2.93792944478719      2.57938855830821
  H   -2.59924049481669      0.71008625319212      0.39219190198367
  H   -1.83366890615023     -2.61147131230732     -1.87800911220187
  H   0.10267443565773     -3.56722137766703      1.79656723730246
  H   1.68766615319018     -1.79878533264157     -0.73096477178951
  H   1.46295823115022      0.30471732294095      0.60052839043211
  H   -0.57384508102292      1.64402610076254     -1.85814731457755
  H   -2.10643929417990      0.27403971149829      1.88105326890770
  H   -3.04530738405428     -1.94346866572263     -1.04873743715050
  H   0.86239393137460     -1.18397212522385     -1.99217590082646
  H   0.85308686896600     -0.48372712610170      1.88750386472139
